LTspice 24.1.9 for Windows
Circuit: C:\Users\Mohammad Amash\Documents\LTspice\BJT_Amplifier.net
Start Time: Thu Jun 19 12:28:12 2025
solver = Normal
Maximum thread count: 12
tnom = 27
temp = 27
method = trap
Direct Newton iteration for .op point succeeded.
Total elapsed time: 0.048 seconds.

Files loaded:
C:\Users\Mohammad Amash\Documents\LTspice\BJT_Amplifier.net
C:\Users\Mohammad Amash\AppData\Local\LTspice\lib\cmp\standard.bjt

